<trips>
    <trip id="1" depart="0" from="e1" to="e11"/>
 <trip id="2" depart="0" from="e1" to="e11"/>
 <trip id="3" depart="0" from="e1" to="e11"/>
 <trip id="4" depart="0" from="e1" to="e11"/>
 <trip id="5" depart="0" from="e1" to="e11"/>
 <trip id="6" depart="0" from="e1" to="e11"/>
 <trip id="7" depart="0" from="e1" to="e11"/>
 <trip id="8" depart="0" from="e1" to="e11"/>
 <trip id="9" depart="0" from="e1" to="e11"/>
 <trip id="10" depart="0" from="e1" to="e11"/>
 <trip id="11" depart="0" from="e1" to="e11"/>
 <trip id="12" depart="0" from="e1" to="e11"/>
 <trip id="13" depart="0" from="e1" to="e11"/>
 <trip id="14" depart="0" from="e1" to="e11"/>
 <trip id="15" depart="0" from="e1" to="e11"/>
 <trip id="16" depart="0" from="e1" to="e11"/>
 <trip id="17" depart="0" from="e1" to="e11"/>
 <trip id="18" depart="0" from="e1" to="e11"/>
 <trip id="19" depart="0" from="e1" to="e11"/>
 <trip id="20" depart="0" from="e1" to="e11"/>
 <trip id="21" depart="0" from="e1" to="e11"/>
 <trip id="22" depart="0" from="e1" to="e11"/>
 <trip id="23" depart="0" from="e1" to="e11"/>
 <trip id="24" depart="0" from="e1" to="e11"/>
 <trip id="25" depart="0" from="e1" to="e11"/>
 <trip id="26" depart="0" from="e1" to="e11"/>
 <trip id="27" depart="0" from="e1" to="e11"/>
 <trip id="28" depart="0" from="e1" to="e11"/>

   
</trips>